OPT_V9/My_campus_w_initial_sub_3_active_24_03_16_48/powerflow_results_t1.txt
Pandapower Network Debug Info
==================================================

BUS:
       vm_pu     va_degree      p_mw    q_mvar
0   1.008357  3.384836e-02 -0.006469 -0.006469
1   1.009671  5.093368e-02 -0.003652 -0.003152
2   1.006206  9.264991e-02  0.002000  0.002377
3   1.011193  1.156365e-01 -0.003729 -0.000728
4   1.010094  7.785465e-02 -0.004377 -0.002377
5   1.008223  9.846071e-02 -0.002536 -0.000036
6   1.015220  1.126764e-01 -0.005216 -0.003775
7   1.004238 -2.297418e-02 -0.003615 -0.003415
8   1.002590  6.552799e-03 -0.005310 -0.004510
9   0.999972  1.713532e-04  0.003949  0.003949
10  0.999966  1.627224e-04  0.005525  0.003525
11  0.999961  1.724565e-04  0.006116  0.005116
12  1.000014 -4.768657e-05  0.003402 -0.000598
13  1.000003  1.874101e-05  0.006899  0.004899
14  0.999997  3.401105e-05  0.007013  0.006013
15  0.999992  1.521112e-04  0.000000  0.000000
16  0.999992  1.478807e-04  0.000000  0.000000
17  1.000015  1.671722e-05  0.000000  0.000000
18  1.000015  8.989598e-06  0.000000  0.000000
19  1.000000  0.000000e+00 -0.003874 -0.009707
20  1.000000  1.103958e-06  0.000000  0.000000
21  1.000000  0.000000e+00  0.003558 -0.001327
22  1.000000 -9.638605e-08  0.000000  0.000000
--------------------------------------------------

LINE:
    p_from_mw  q_from_mvar   p_to_mw  q_to_mvar         pl_mw       ql_mvar  i_from_ka   i_to_ka      i_ka  vm_from_pu  va_from_degree  vm_to_pu  va_to_degree  loading_percent
0    0.003864     0.005707 -0.003864  -0.005707  4.646056e-08  3.622606e-08   0.000265  0.000265  0.000265    1.000000    1.103958e-06  0.999992      0.000152         0.115336
1   -0.003568    -0.002673  0.003568   0.002673  5.346020e-08  4.168380e-08   0.000172  0.000172  0.000172    1.000000   -9.638605e-08  1.000015      0.000017         0.074605
2    0.015591     0.012591 -0.015590  -0.012590  3.105500e-07  2.421409e-07   0.000771  0.000771  0.000771    0.999992    1.521112e-04  0.999972      0.000171         0.335364
3    0.003402    -0.000598 -0.003402   0.000598  4.126912e-09  3.217821e-09   0.000133  0.000133  0.000133    1.000015    1.671722e-05  1.000014     -0.000048         0.057810
4    0.013912     0.010912 -0.013912  -0.010912  1.709379e-07  1.332831e-07   0.000681  0.000681  0.000681    1.000015    1.671722e-05  1.000003      0.000019         0.295888
5   -0.011737    -0.007883  0.011831   0.007956  9.350212e-05  7.290515e-05   0.020408  0.020408  0.020408    0.999992    1.478807e-04  1.008357      0.033848         8.872971
6   -0.007661    -0.003740  0.007717   0.003784  5.638024e-05  4.396060e-05   0.012304  0.012304  0.012304    1.000015    8.989598e-06  1.008223      0.098461         5.349772
7   -0.003598    -0.003402  0.003615   0.003415  1.656461e-05  1.291570e-05   0.007147  0.007147  0.007147    1.000015    8.989598e-06  1.004238     -0.022974         3.107385
8   -0.009634    -0.006846  0.009658   0.006864  2.401509e-05  1.872496e-05   0.017058  0.017058  0.017058    1.000015    8.989598e-06  1.002590      0.006553         7.416660
9   -0.011642    -0.008642  0.011642   0.008642  7.269798e-08  5.668381e-08   0.000558  0.000558  0.000558    0.999966    1.627224e-04  0.999972      0.000171         0.242636
10  -0.006116    -0.005116  0.006116   0.005116  3.110173e-08  2.425053e-08   0.000307  0.000307  0.000307    0.999961    1.724565e-04  0.999966      0.000163         0.133453
11  -0.007013    -0.006013  0.007013   0.006013  4.174172e-08  3.254671e-08   0.000356  0.000356  0.000356    0.999997    3.401105e-05  1.000003      0.000019         0.154604
12   0.001644     0.000768 -0.001642  -0.000767  1.910689e-06  1.489796e-06   0.002594  0.002594  0.002594    1.009671    5.093368e-02  1.008357      0.033848         1.127777
13   0.003729     0.000728 -0.003720  -0.000720  9.425922e-06  7.349546e-06   0.005423  0.005423  0.005423    1.011193    1.156365e-01  1.008357      0.033848         2.357913
14  -0.002000    -0.002377  0.002009   0.002384  8.622669e-06  6.723237e-06   0.004456  0.004456  0.004456    1.006206    9.264991e-02  1.009671      0.050934         1.937517
15  -0.004348    -0.002354  0.004377   0.002377  2.958932e-05  2.307128e-05   0.007118  0.007118  0.007118    1.002590    6.552799e-03  1.010094      0.077855         3.094694
16   0.005216     0.003775 -0.005181  -0.003748  3.502389e-05  2.730870e-05   0.009155  0.009155  0.009155    1.015220    1.126764e-01  1.008223      0.098461         3.980328
--------------------------------------------------

TRAFO:
    p_hv_mw  q_hv_mvar   p_lv_mw  q_lv_mvar    pl_mw  ql_mvar   i_hv_ka   i_lv_ka  vm_hv_pu  va_hv_degree  vm_lv_pu  va_lv_degree  loading_percent
0 -0.011727  -0.006884  0.011737   0.007883  0.00001    0.001  0.000523  0.020408  0.999992      0.000152  0.999992  1.478807e-04         0.141390
1 -0.020883  -0.012988  0.020893   0.013988  0.00001    0.001  0.000947  0.036290  1.000015      0.000017  1.000015  8.989598e-06         0.251425
2  0.003874   0.009707 -0.003864  -0.005707  0.00001    0.004  0.000086  0.000265  1.000000      0.000000  1.000000  1.103958e-06         0.026129
3 -0.003558   0.001327  0.003568   0.002673  0.00001    0.004  0.000031  0.000172  1.000000      0.000000  1.000000 -9.638605e-08         0.011145
--------------------------------------------------
